17-ai-agents/power_grid_agent/data/sample_case.raw
0, 100.0 / Base MVA
1, 3 / three bus system
1,'BUS1       ',138, 3, 1, 1, 1, 1, 0, 0, 1, 1.1, 0.9
2,'BUS2       ',138, 1, 1, 1, 1, 1, 0, 0, 1, 1.1, 0.9
3,'BUS3       ',138, 1, 1, 1, 1, 1, 0, 0, 1, 1.1, 0.9
0 / END OF BUS DATA, BEGIN LOAD DATA
1,'1',1,1,1,10,5,0,0,0,0,1,1,0
2,'1',1,1,1,10,5,0,0,0,0,1,1,0
3,'1',1,1,1,15,5,0,0,0,0,1,1,0
0 / END OF LOAD DATA, BEGIN GENERATOR DATA
1,'1',0,0,999,-999,1,100,1,1,0,0,0,0,0,0,0,0,0,0,0,0,0,0,0,0
2,'1',40,0,999,-999,1,100,1,1,0,0,0,0,0,0,0,0,0,0,0,0,0,0,0,0
0 / END OF GENERATOR DATA, BEGIN BRANCH DATA
1,2,'1',0.1,0.2,0.0,0,0,0,0,0,1,0,0,0,0,1,1,1,1,0,0
1,3,'1',0.1,0.2,0.0,0,0,0,0,0,1,0,0,0,0,1,1,1,1,0,0
2,3,'1',0.1,0.2,0.0,0,0,0,0,0,1,0,0,0,0,1,1,1,1,0,0
0 / END OF BRANCH DATA
0 / END OF FILE
